Circuit: *

.step vd=-0.1
.step vd=-0.3
.step vd=-0.5
.step vd=-1
.step vd=-2
.step vd=-3
.step vd=-4
.step vd=-5
.step vd=-6
.step vd=-7

Date: Fri Jun 13 22:28:58 2025
Total elapsed time: 0.010 seconds.

tnom = 27
temp = 27
method = trap
totiter = 277
traniter = 0
tranpoints = 0
accept = 0
rejected = 0
matrix size = 6
fillins = 0
solver = Normal
Avg thread counts: 4.5/0.0/8.0/4.5
Matrix Compiler1: off  [0.1]/0.1/0.1
Matrix Compiler2: off  [0.1]/0.1/0.1

