LTspice 24.1.9 for Windows
Circuit: C:\Users\Александр\OneDrive\Рабочий стол\front-end\Экстрактор React\server\project\spicefiles\modidvg.cir
Start Time: Sat Jun 14 18:02:36 2025
Options: plotwinsize=0  noopiter
solver = Normal
Maximum thread count: 12
tnom = 27
temp = 27
method = modified trap
noOpIter = true
.step VD=0.1 
.step VD=0.3 
.step VD=0.5 
.step VD=1 
.step VD=2 
.step VD=3 
.step VD=4 
.step VD=5 
.step VD=6 
.step VD=7 
Total elapsed time: 0.093 seconds.

Files loaded:
C:\Users\Александр\OneDrive\Рабочий стол\front-end\Экстрактор React\server\project\spicefiles\modidvg.cir

