Circuit: *

.step vg=-0.4
.step vg=-1
.step vg=-1.6
.step vg=-2.2
.step vg=-2.8
.step vg=-3.4
.step vg=-4
.step vg=-4.6
.step vg=-5.2
.step vg=-5.8
.step vg=-6.4
.step vg=-7

Date: Fri Jun 13 22:28:57 2025
Total elapsed time: 0.012 seconds.

tnom = 27
temp = 27
method = trap
totiter = 1759
traniter = 0
tranpoints = 0
accept = 0
rejected = 0
matrix size = 6
fillins = 0
solver = Normal
Avg thread counts: 1.6/0.0/2.1/1.6
Matrix Compiler1:      12 opcodes  0.1/[0.1]/0.1
Matrix Compiler2: off  [0.1]/0.1/0.1

