LTspice 24.1.9 for Windows
Circuit: C:\Users\Александр\OneDrive\Рабочий стол\front-end\Экстрактор React\server\project\spicefiles\modidvd.cir
Start Time: Sat Jun 14 18:02:36 2025
Options: plotwinsize=0  noopiter
solver = Normal
Maximum thread count: 12
tnom = 27
temp = 27
method = modified trap
noOpIter = true
.step VG=0.4 
.step VG=1 
.step VG=1.6 
.step VG=2.2 
.step VG=2.8 
.step VG=3.4 
.step VG=4 
.step VG=4.6 
.step VG=5.2 
.step VG=5.8 
.step VG=6.4 
.step VG=7 
Total elapsed time: 0.166 seconds.

Files loaded:
C:\Users\Александр\OneDrive\Рабочий стол\front-end\Экстрактор React\server\project\spicefiles\modidvd.cir

